/*--------------------------------*- C++ -*----------------------------------*\
  =========                 |
  \\      /  F ield         | OpenFOAM: The Open Source CFD Toolbox
   \\    /   O peration     | Website:  https://openfoam.org
    \\  /    A nd           | Version:  6
     \\/     M anipulation  |
\*---------------------------------------------------------------------------*/
FoamFile
{
    version     2.0;
    format      ascii;
    class       dictionary;
    object      topoSetDict;
}

// * * * * * * * * * * * * * * * * * * * * * * * * * * * * * * * * * * * * * //
// To visualise the faceZone, do: foamToVTK -faceSet MixTubeOut -time 0
// Then, visualise the generated VTK files in paraview.

actions
(
    {
        name    MixTubeOut;
        type    faceSet;
        action  new;
        source  boxToFace;
        sourceInfo
        {
            box (-0.02 -0.02 0.26495)(0.02 0.02 0.26505);
        }
    }

    {
        name    MixTubeOut_zone;
        type    faceZoneSet;
        action  new;
        source  setToFaceZone;
        sourceInfo
        {
            faceSet MixTubeOut;
        }
    }

);


// ************************************************************************* //
